/*--------------------------------*- C++ -*----------------------------------*\
| =========                 |                                                 |
| \\      /  F ield         | OpenFOAM: The Open Source CFD Toolbox           |
|  \\    /   O peration     | Version:  8.0                                   |
|   \\  /    A nd           | Web:      www.OpenFOAM.org                      |
|    \\/     M anipulation  |                                                 |
\*---------------------------------------------------------------------------*/
FoamFile
{
    version     2.0;
    format      ascii;
    class       dictionary;
    object      fvSolution;
}
// * * * * * * * * * * * * * * * * * * * * * * * * * * * * * * * * * * * * * //

solvers
{
    p
    {
        solver          GAMG;
        smoother        GaussSeidel;
        tolerance       1e-7;
        relTol          0.1;
    }

    Phi
    {
        $p;
    }

     "(U|k|omega|gammaInt|ReThetat)"
    {
        solver           smoothSolver;
        smoother         GaussSeidel;
        tolerance        1e-8;
        relTol           0.1;
        nSweeps          1;
    }

}

SIMPLE
{
    nNonOrthogonalCorrectors 1;
    consistent yes;

    residualControl
    {
    p               1e-6;
    U               1e-6;
    }
}

potentialFlow
{
    nNonOrthogonalCorrectors 2;
}


relaxationFactors
{
    fields
    {
    p               0.3;
    }
    equations
    {
    U		        0.7;
    "(U|k|omega)Final" 1.0;
    }
}

cache
{
    grad(U);
}

// ************************************************************************* //
